# MODFLOW2000 Constant-Head Boundary Package (CHD)
 65337
 65337 0
 1 270 632 8.940000 8.940000
 1 270 636 8.940000 8.940000
 1 271 633 8.940000 8.940000
 1 271 635 8.940000 8.940000
 1 271 636 8.940000 8.940000
 1 272 622 8.940000 8.940000
 1 272 623 8.940000 8.940000
 1 272 634 8.940000 8.940000
 1 272 635 8.940000 8.940000
 1 272 636 10.750000 10.750000
 1 273 622 8.940000 8.940000
 1 273 623 8.940000 8.940000
 1 273 624 8.940000 8.940000
 1 273 636 8.940000 8.940000
 1 274 623 8.940000 8.940000
 1 274 624 8.940000 8.940000
 1 274 625 8.940000 8.940000
 1 274 636 8.940000 8.940000
 1 275 623 8.940000 8.940000
 1 275 624 8.940000 8.940000
 1 275 625 8.940000 8.940000
 1 275 626 8.940000 8.940000
 1 275 636 8.940000 8.940000
 1 275 637 10.750000 10.750000
 1 276 614 8.940000 8.940000
 1 276 625 8.940000 8.940000
 1 276 626 8.940000 8.940000
 1 276 627 8.940000 8.940000
 1 276 628 11.650000 11.650000
 1 276 629 12.550000 12.550000
 1 276 636 8.940000 8.940000
 1 276 637 10.750000 10.750000
 1 277 614 10.750000 10.750000
 1 277 626 13.460000 13.460000
 1 277 627 8.940000 8.940000
 1 277 628 8.940000 8.940000
 1 277 629 8.940000 8.940000
 1 277 630 10.750000 10.750000
 1 277 634 8.940000 8.940000
 1 277 636 8.940000 8.940000
 1 277 637 8.940000 8.940000
 1 278 614 15.260000 15.260000
 1 278 615 1.720000 1.720000
 1 278 628 8.940000 8.940000
 1 278 629 8.940000 8.940000
 1 278 630 8.940000 8.940000
 1 278 633 8.940000 8.940000
 1 278 634 8.940000 8.940000
 1 278 635 8.940000 8.940000
 1 278 636 8.940000 8.940000
 1 278 637 8.940000 8.940000
 1 279 615 2.620000 2.620000
 1 279 628 8.940000 8.940000
 1 279 629 8.940000 8.940000
 1 279 630 8.940000 8.940000
 1 279 631 8.940000 8.940000
 1 279 632 8.940000 8.940000
 1 279 633 8.940000 8.940000
 1 279 634 8.940000 8.940000
 1 279 635 8.940000 8.940000
 1 279 636 8.940000 8.940000
 1 279 637 8.940000 8.940000
 1 280 615 1.720000 1.720000
 1 280 629 8.940000 8.940000
 1 280 630 8.940000 8.940000
 1 280 631 8.940000 8.940000
 1 280 632 8.940000 8.940000
 1 280 633 8.940000 8.940000
 1 280 634 8.940000 8.940000
 1 280 635 8.940000 8.940000
 1 280 636 8.940000 8.940000
 1 280 637 8.940000 8.940000
 1 281 607 4.430000 4.430000
 1 281 614 5.330000 5.330000
 1 281 615 0.000000e+000 0.000000e+000
 1 281 616 8.940000 8.940000
 1 281 617 12.550000 12.550000
 1 281 618 10.750000 10.750000
 1 281 630 8.940000 8.940000
 1 281 631 8.940000 8.940000
 1 281 632 8.940000 8.940000
 1 281 633 8.940000 8.940000
 1 281 634 8.940000 8.940000
 1 281 635 8.940000 8.940000
 1 281 636 8.940000 8.940000
 1 281 637 8.940000 8.940000
 1 282 604 8.200000e-001 8.200000e-001
 1 282 605 8.200000e-001 8.200000e-001
 1 282 607 1.720000 1.720000
 1 282 614 2.620000 2.620000
 1 282 615 0.000000e+000 0.000000e+000
 1 282 618 10.750000 10.750000
 1 282 631 8.940000 8.940000
 1 282 635 8.940000 8.940000
 1 282 636 8.940000 8.940000
 1 282 637 8.940000 8.940000
 1 282 638 8.940000 8.940000
 1 283 604 8.200000e-001 8.200000e-001
 1 283 605 3.520000 3.520000
 1 283 608 3.520000 3.520000
 1 283 609 1.720000 1.720000
 1 283 615 0.000000e+000 0.000000e+000
 1 283 619 8.940000 8.940000
 1 283 620 15.260000 15.260000
 1 283 631 8.940000 8.940000
 1 283 632 8.940000 8.940000
 1 283 635 8.940000 8.940000
 1 283 636 8.940000 8.940000
 1 283 637 8.940000 8.940000
 1 283 638 8.940000 8.940000
 1 284 604 2.620000 2.620000
 1 284 605 8.200000e-001 8.200000e-001
 1 284 610 0.000000e+000 0.000000e+000
 1 284 615 0.000000e+000 0.000000e+000
 1 284 621 16.170000 16.170000
 1 284 633 8.940000 8.940000
 1 284 634 8.940000 8.940000
 1 284 635 8.040000 8.040000
 1 284 636 8.940000 8.940000
 1 284 637 8.940000 8.940000
 1 284 638 8.940000 8.940000
 1 285 604 7.140000 7.140000
 1 285 605 0.000000e+000 0.000000e+000
 1 285 609 15.260000 15.260000
 1 285 614 4.430000 4.430000
 1 285 615 0.000000e+000 0.000000e+000
 1 285 622 9.850000 9.850000
 1 285 635 4.430000 4.430000
 1 285 636 8.940000 8.940000
 1 285 637 8.940000 8.940000
 1 286 605 0.000000e+000 0.000000e+000
 1 286 606 1.720000 1.720000
 1 286 609 5.330000 5.330000
 1 286 613 12.550000 12.550000
 1 286 614 8.200000e-001 8.200000e-001
 1 286 615 0.000000e+000 0.000000e+000
 1 286 622 8.940000 8.940000
 1 286 631 8.940000 8.940000
 1 286 635 4.430000 4.430000
 1 286 636 3.520000 3.520000
 1 286 637 4.430000 4.430000
 1 286 638 8.940000 8.940000
 1 287 604 5.330000 5.330000
 1 287 605 0.000000e+000 0.000000e+000
 1 287 606 0.000000e+000 0.000000e+000
 1 287 609 0.000000e+000 0.000000e+000
 1 287 613 5.330000 5.330000
 1 287 614 0.000000e+000 0.000000e+000
 1 287 615 8.200000e-001 8.200000e-001
 1 287 621 6.230000 6.230000
 1 287 622 12.550000 12.550000
 1 287 623 9.850000 9.850000
 1 287 631 8.940000 8.940000
 1 287 635 5.330000 5.330000
 1 287 636 8.040000 8.040000
 1 287 637 3.520000 3.520000
 1 288 601 6.230000 6.230000
 1 288 602 3.520000 3.520000
 1 288 603 2.620000 2.620000
 1 288 604 3.520000 3.520000
 1 288 605 0.000000e+000 0.000000e+000
 1 288 606 0.000000e+000 0.000000e+000
 1 288 607 0.000000e+000 0.000000e+000
 1 288 608 0.000000e+000 0.000000e+000
 1 288 609 0.000000e+000 0.000000e+000
 1 288 613 8.200000e-001 8.200000e-001
 1 288 614 3.520000 3.520000
 1 288 615 4.430000 4.430000
 1 288 620 1.720000 1.720000
 1 288 621 7.140000 7.140000
 1 288 622 17.969999 17.969999
 1 288 623 8.940000 8.940000
 1 288 632 8.940000 8.940000
 1 288 633 8.940000 8.940000
 1 288 634 6.230000 6.230000
 1 288 635 1.720000 1.720000
 1 288 636 2.500000e-002 2.500000e-002
 1 288 637 3.520000 3.520000
 1 289 606 0.000000e+000 0.000000e+000
 1 289 607 0.000000e+000 0.000000e+000
 1 289 608 0.000000e+000 0.000000e+000
 1 289 612 9.850000 9.850000
 1 289 613 0.000000e+000 0.000000e+000
 1 289 614 8.040000 8.040000
 1 289 620 1.720000 1.720000
 1 289 621 7.140000 7.140000
 1 289 622 10.750000 10.750000
 1 289 632 8.040000 8.040000
 1 289 633 5.330000 5.330000
 1 289 634 1.720000 1.720000
 1 289 635 1.350000e-001 1.350000e-001
 1 289 636 7.500000e-002 7.500000e-002
 1 289 637 8.200000e-001 8.200000e-001
 1 290 606 3.520000 3.520000
 1 290 607 0.000000e+000 0.000000e+000
 1 290 608 0.000000e+000 0.000000e+000
 1 290 609 0.000000e+000 0.000000e+000
 1 290 611 2.620000 2.620000
 1 290 612 8.200000e-001 8.200000e-001
 1 290 613 2.620000 2.620000
 1 290 614 3.520000 3.520000
 1 290 620 6.230000 6.230000
 1 290 621 8.940000 8.940000
 1 290 622 4.430000 4.430000
 1 290 632 4.430000 4.430000
 1 290 633 0.000000e+000 0.000000e+000
 1 290 634 0.000000e+000 0.000000e+000
 1 290 635 2.500000e-002 2.500000e-002
 1 290 636 7.500000e-002 7.500000e-002
 1 290 637 5.330000 5.330000
 1 291 563 8.040000 8.040000
 1 291 607 0.000000e+000 0.000000e+000
 1 291 608 0.000000e+000 0.000000e+000
 1 291 610 0.000000e+000 0.000000e+000
 1 291 611 0.000000e+000 0.000000e+000
 1 291 612 0.000000e+000 0.000000e+000
 1 291 613 0.000000e+000 0.000000e+000
 1 291 614 2.620000 2.620000
 1 291 620 5.330000 5.330000
 1 291 621 2.620000 2.620000
 1 291 622 3.520000 3.520000
 1 291 632 5.330000 5.330000
 1 291 633 0.000000e+000 0.000000e+000
 1 291 634 0.000000e+000 0.000000e+000
 1 291 635 7.500000e-002 7.500000e-002
 1 291 636 2.620000 2.620000
 1 291 637 8.940000 8.940000
 1 292 563 19.780001 19.780001
 1 292 564 4.430000 4.430000
 1 292 606 1.720000 1.720000
 1 292 607 2.620000 2.620000
 1 292 608 0.000000e+000 0.000000e+000
 1 292 609 1.480000e-001 1.480000e-001
 1 292 610 0.000000e+000 0.000000e+000
 1 292 611 0.000000e+000 0.000000e+000
 1 292 614 1.720000 1.720000
 1 292 620 1.720000 1.720000
 1 292 621 0.000000e+000 0.000000e+000
 1 292 632 8.040000 8.040000
 1 292 633 0.000000e+000 0.000000e+000
 1 292 634 0.000000e+000 0.000000e+000
 1 292 635 2.500000e-002 2.500000e-002
 1 292 636 9.000000e-001 9.000000e-001
 1 293 564 2.620000 2.620000
 1 293 607 8.040000 8.040000
 1 293 608 0.000000e+000 0.000000e+000
 1 293 609 1.110000e-001 1.110000e-001
 1 293 610 1.000000e-001 1.000000e-001
 1 293 611 0.000000e+000 0.000000e+000
 1 293 614 6.230000 6.230000
 1 293 615 5.330000 5.330000
 1 293 620 1.720000 1.720000
 1 293 621 0.000000e+000 0.000000e+000
 1 293 633 0.000000e+000 0.000000e+000
 1 293 634 0.000000e+000 0.000000e+000
 1 293 636 7.500000e-002 7.500000e-002
 1 293 637 0.000000e+000 0.000000e+000
 1 294 564 4.430000 4.430000
 1 294 608 0.000000e+000 0.000000e+000
 1 294 609 1.000000e-001 1.000000e-001
 1 294 610 2.000000e-001 2.000000e-001
 1 294 611 0.000000e+000 0.000000e+000
 1 294 615 1.720000 1.720000
 1 294 620 1.720000 1.720000
 1 294 621 0.000000e+000 0.000000e+000
 1 294 633 0.000000e+000 0.000000e+000
 1 294 634 0.000000e+000 0.000000e+000
 1 294 635 0.000000e+000 0.000000e+000
 1 294 636 2.500000e-002 2.500000e-002
 1 294 637 2.500000e-002 2.500000e-002
 1 295 564 6.230000 6.230000
 1 295 608 0.000000e+000 0.000000e+000
 1 295 609 0.000000e+000 0.000000e+000
 1 295 610 2.600000e-001 2.600000e-001
 1 295 611 6.600000e-002 6.600000e-002
 1 295 612 0.000000e+000 0.000000e+000
 1 295 613 8.200000e-001 8.200000e-001
 1 295 614 6.230000 6.230000
 1 295 615 0.000000e+000 0.000000e+000
 1 295 620 8.200000e-001 8.200000e-001
 1 295 621 5.400000e-002 5.400000e-002
 1 295 633 2.500000e-002 2.500000e-002
 1 295 634 0.000000e+000 0.000000e+000
 1 295 635 0.000000e+000 0.000000e+000
 1 295 636 0.000000e+000 0.000000e+000
 1 295 637 1.850000e-001 1.850000e-001
 1 295 638 2.500000e-002 2.500000e-002
 1 295 639 0.000000e+000 0.000000e+000
 1 296 563 19.780001 19.780001
 1 296 564 6.230000 6.230000
 1 296 606 0.000000e+000 0.000000e+000
 1 296 608 0.000000e+000 0.000000e+000
 1 296 609 4.000000e-002 4.000000e-002
 1 296 610 2.940000e-001 2.940000e-001
 1 296 611 5.000000e-002 5.000000e-002
 1 296 613 0.000000e+000 0.000000e+000
 1 296 614 0.000000e+000 0.000000e+000
 1 296 615 8.200000e-001 8.200000e-001
 1 296 616 0.000000e+000 0.000000e+000
 1 296 617 1.000000e-001 1.000000e-001
 1 296 618 5.000000e-002 5.000000e-002
 1 296 619 4.900000e-002 4.900000e-002
 1 296 620 6.900000e-002 6.900000e-002
 1 296 621 4.900000e-002 4.900000e-002
 1 296 622 4.300000e-002 4.300000e-002
 1 296 634 0.000000e+000 0.000000e+000
 1 296 635 0.000000e+000 0.000000e+000
 1 296 636 0.000000e+000 0.000000e+000
 1 296 637 2.700000e-002 2.700000e-002
 1 296 638 5.000000e-002 5.000000e-002
 1 296 639 1.030000e-001 1.030000e-001
 1 297 563 16.170000 16.170000
 1 297 607 3.500000e-002 3.500000e-002
 1 297 608 0.000000e+000 0.000000e+000
 1 297 609 6.700000e-002 6.700000e-002
 1 297 610 3.240000e-001 3.240000e-001
 1 297 611 2.500000e-002 2.500000e-002
 1 297 616 5.500000e-002 5.500000e-002
 1 297 622 8.600000e-002 8.600000e-002
 1 297 623 0.000000e+000 0.000000e+000
 1 297 634 1.800000e-002 1.800000e-002
 1 297 635 7.500000e-002 7.500000e-002
 1 297 636 7.500000e-002 7.500000e-002
 1 297 637 2.200000e-001 2.200000e-001
 1 297 638 2.500000e-002 2.500000e-002
 1 297 639 5.000000e-002 5.000000e-002
 1 297 640 4.600000e-002 4.600000e-002
 1 298 563 27.000000 27.000000
 1 298 564 4.430000 4.430000
 1 298 607 2.500000e-002 2.500000e-002
 1 298 608 0.000000e+000 0.000000e+000
 1 298 609 5.500000e-002 5.500000e-002
 1 298 610 3.040000e-001 3.040000e-001
 1 298 613 8.200000e-001 8.200000e-001
 1 298 615 1.460000e-001 1.460000e-001
 1 298 616 2.190000e-001 2.190000e-001
 1 298 621 5.330000 5.330000
 1 298 623 1.960000e-001 1.960000e-001
 1 298 624 5.000000e-002 5.000000e-002
 1 298 634 5.000000e-002 5.000000e-002
 1 298 635 0.000000e+000 0.000000e+000
 1 298 637 9.000000e-002 9.000000e-002
 1 298 638 5.600000e-002 5.600000e-002
 1 298 639 7.500000e-002 7.500000e-002
 1 298 640 2.500000e-002 2.500000e-002
 1 298 641 1.000000e-001 1.000000e-001
 1 298 642 2.500000e-002 2.500000e-002
 1 299 563 33.320000 33.320000
 1 299 564 2.620000 2.620000
 1 299 606 2.500000e-002 2.500000e-002
 1 299 607 5.000000e-002 5.000000e-002
 1 299 608 0.000000e+000 0.000000e+000
 1 299 609 2.600000e-002 2.600000e-002
 1 299 610 2.560000e-001 2.560000e-001
 1 299 611 1.770000e-001 1.770000e-001
 1 299 613 0.000000e+000 0.000000e+000
 1 299 614 8.200000e-001 8.200000e-001
 1 299 615 2.190000e-001 2.190000e-001
 1 299 616 0.000000e+000 0.000000e+000
 1 299 620 1.720000 1.720000
 1 299 621 0.000000e+000 0.000000e+000
 1 299 622 0.000000e+000 0.000000e+000
 1 299 624 7.500000e-002 7.500000e-002
 1 299 625 5.000000e-002 5.000000e-002
 1 299 626 0.000000e+000 0.000000e+000
 1 299 635 5.000000e-002 5.000000e-002
 1 299 638 7.500000e-002 7.500000e-002
 1 299 639 5.500000e-002 5.500000e-002
 1 299 640 2.500000e-002 2.500000e-002
 1 299 641 0.000000e+000 0.000000e+000
 1 299 642 0.000000e+000 0.000000e+000
 1 300 563 12.550000 12.550000
 1 300 564 2.620000 2.620000
 1 300 602 2.620000 2.620000
 1 300 606 0.000000e+000 0.000000e+000
 1 300 607 2.500000e-002 2.500000e-002
 1 300 608 2.500000e-002 2.500000e-002
 1 300 609 1.220000e-001 1.220000e-001
 1 300 610 2.960000e-001 2.960000e-001
 1 300 611 2.260000e-001 2.260000e-001
 1 300 612 2.400000e-001 2.400000e-001
 1 300 613 2.430000e-001 2.430000e-001
 1 300 614 1.280000e-001 1.280000e-001
 1 300 615 5.000000e-002 5.000000e-002
 1 300 617 0.000000e+000 0.000000e+000
 1 300 620 0.000000e+000 0.000000e+000
 1 300 621 1.720000 1.720000
 1 300 622 0.000000e+000 0.000000e+000
 1 300 624 8.200000e-001 8.200000e-001
 1 300 625 1.160000e-001 1.160000e-001
 1 300 626 1.840000e-001 1.840000e-001
 1 300 627 0.000000e+000 0.000000e+000
 1 300 635 6.300000e-002 6.300000e-002
 1 300 638 2.500000e-002 2.500000e-002
 1 300 639 5.000000e-002 5.000000e-002
 1 300 640 2.660000e-001 2.660000e-001
 1 300 641 2.500000e-002 2.500000e-002
 1 300 642 1.340000e-001 1.340000e-001
 1 301 564 1.720000 1.720000
 1 301 599 4.430000 4.430000
 1 301 600 8.200000e-001 8.200000e-001
 1 301 603 0.000000e+000 0.000000e+000
 1 301 604 8.200000e-001 8.200000e-001
 1 301 605 8.200000e-001 8.200000e-001
 1 301 606 3.520000 3.520000
 1 301 607 1.000000e-001 1.000000e-001
 1 301 608 2.500000e-002 2.500000e-002
 1 301 609 2.840000e-001 2.840000e-001
 1 301 610 4.170000e-001 4.170000e-001
 1 301 611 1.940000e-001 1.940000e-001
 1 301 612 0.000000e+000 0.000000e+000
 1 301 613 9.200000e-002 9.200000e-002
 1 301 614 1.750000e-001 1.750000e-001
 1 301 620 0.000000e+000 0.000000e+000
 1 301 623 2.620000 2.620000
 1 301 624 0.000000e+000 0.000000e+000
 1 301 625 0.000000e+000 0.000000e+000
 1 301 626 1.010000e-001 1.010000e-001
 1 301 627 2.250000e-001 2.250000e-001
 1 301 628 2.500000e-002 2.500000e-002
 1 301 636 4.500000e-002 4.500000e-002
 1 301 637 0.000000e+000 0.000000e+000
 1 301 639 0.000000e+000 0.000000e+000
 1 301 640 2.740000e-001 2.740000e-001
 1 301 641 1.050000e-001 1.050000e-001
 1 301 642 6.900000e-002 6.900000e-002
 1 302 564 8.200000e-001 8.200000e-001
 1 302 565 4.430000 4.430000
 1 302 566 6.230000 6.230000
 1 302 600 1.720000 1.720000
 1 302 603 2.620000 2.620000
 1 302 604 2.500000e-002 2.500000e-002
 1 302 605 0.000000e+000 0.000000e+000
 1 302 606 0.000000e+000 0.000000e+000
 1 302 607 1.000000e-001 1.000000e-001
 1 302 608 2.700000e-002 2.700000e-002
 1 302 609 4.300000e-001 4.300000e-001
 1 302 610 4.540000e-001 4.540000e-001
 1 302 611 0.000000e+000 0.000000e+000
 1 302 612 1.390000e-001 1.390000e-001
 1 302 613 6.700000e-002 6.700000e-002
 1 302 626 0.000000e+000 0.000000e+000
 1 302 627 4.600000e-002 4.600000e-002
 1 302 628 1.840000e-001 1.840000e-001
 1 302 629 2.500000e-002 2.500000e-002
 1 302 637 8.600000e-002 8.600000e-002
 1 302 638 0.000000e+000 0.000000e+000
 1 302 639 0.000000e+000 0.000000e+000
 1 302 640 2.150000e-001 2.150000e-001
 1 302 641 0.000000e+000 0.000000e+000
 1 302 642 1.250000e-001 1.250000e-001
 1 302 643 1.840000e-001 1.840000e-001
 1 302 644 1.080000e-001 1.080000e-001
 1 302 645 3.510000e-001 3.510000e-001
 1 303 563 25.200001 25.200001
 1 303 564 0.000000e+000 0.000000e+000
 1 303 565 0.000000e+000 0.000000e+000
 1 303 566 2.620000 2.620000
 1 303 601 0.000000e+000 0.000000e+000
 1 303 604 1.720000 1.720000
 1 303 605 8.200000e-001 8.200000e-001
 1 303 606 8.200000e-001 8.200000e-001
 1 303 607 1.610000e-001 1.610000e-001
 1 303 608 2.760000e-001 2.760000e-001
 1 303 609 5.200000e-001 5.200000e-001
 1 303 610 3.000000e-001 3.000000e-001
 1 303 611 6.230000 6.230000
 1 303 612 8.940000 8.940000
 1 303 613 8.940000 8.940000
 1 303 626 4.500000e-002 4.500000e-002
 1 303 627 4.300000e-002 4.300000e-002
 1 303 628 1.140000e-001 1.140000e-001
 1 303 629 1.310000e-001 1.310000e-001
 1 303 630 0.000000e+000 0.000000e+000
 1 303 631 0.000000e+000 0.000000e+000
 1 303 632 0.000000e+000 0.000000e+000
 1 303 638 5.900000e-002 5.900000e-002
 1 303 639 2.500000e-002 2.500000e-002
 1 303 640 2.510000e-001 2.510000e-001
 1 303 641 5.000000e-002 5.000000e-002
 1 303 643 1.160000e-001 1.160000e-001
 1 303 644 9.100000e-002 9.100000e-002
 1 303 645 1.220000e-001 1.220000e-001
 1 304 566 0.000000e+000 0.000000e+000
 1 304 602 8.200000e-001 8.200000e-001
 1 304 606 2.500000e-002 2.500000e-002
 1 304 607 3.600000e-002 3.600000e-002
 1 304 608 2.900000e-001 2.900000e-001
 1 304 609 5.130000e-001 5.130000e-001
 1 304 610 2.690000e-001 2.690000e-001
 1 304 626 0.000000e+000 0.000000e+000
 1 304 627 0.000000e+000 0.000000e+000
 1 304 628 7.100000e-002 7.100000e-002
 1 304 629 1.870000e-001 1.870000e-001
 1 304 630 1.160000e-001 1.160000e-001
 1 304 631 0.000000e+000 0.000000e+000
 1 304 632 0.000000e+000 0.000000e+000
 1 304 633 0.000000e+000 0.000000e+000
 1 304 634 0.000000e+000 0.000000e+000
 1 304 635 0.000000e+000 0.000000e+000
 1 304 638 9.500000e-002 9.500000e-002
 1 304 639 1.990000e-001 1.990000e-001
 1 304 640 4.100000e-002 4.100000e-002
 1 304 641 7.500000e-002 7.500000e-002
 1 304 642 5.000000e-002 5.000000e-002
 1 304 643 1.250000e-001 1.250000e-001
 1 304 644 8.200000e-002 8.200000e-002
 1 304 645 2.880000e-001 2.880000e-001
 1 304 646 5.000000e-002 5.000000e-002
 1 305 566 0.000000e+000 0.000000e+000
 1 305 602 8.200000e-001 8.200000e-001
 1 305 603 8.200000e-001 8.200000e-001
 1 305 607 7.100000e-002 7.100000e-002
 1 305 608 3.990000e-001 3.990000e-001
 1 305 609 4.390000e-001 4.390000e-001
 1 305 610 3.250000e-001 3.250000e-001
 1 305 623 2.620000 2.620000
 1 305 625 2.620000 2.620000
 1 305 626 4.400000e-002 4.400000e-002
 1 305 627 1.810000e-001 1.810000e-001
 1 305 628 1.140000e-001 1.140000e-001
 1 305 629 2.000000e-001 2.000000e-001
 1 305 630 1.610000e-001 1.610000e-001
 1 305 631 9.200000e-002 9.200000e-002
 1 305 632 8.000000e-002 8.000000e-002
 1 305 633 5.000000e-002 5.000000e-002
 1 305 634 2.500000e-002 2.500000e-002
 1 305 635 0.000000e+000 0.000000e+000
 1 305 637 0.000000e+000 0.000000e+000
 1 305 639 8.200000e-002 8.200000e-002
 1 305 640 2.320000e-001 2.320000e-001
 1 305 641 1.000000e-001 1.000000e-001
 1 305 642 2.500000e-002 2.500000e-002
 1 305 643 2.500000e-002 2.500000e-002
 1 305 644 0.000000e+000 0.000000e+000
 1 305 645 3.760000e-001 3.760000e-001
 1 305 646 0.000000e+000 0.000000e+000
 1 306 565 0.000000e+000 0.000000e+000
 1 306 566 2.620000 2.620000
 1 306 603 0.000000e+000 0.000000e+000
 1 306 607 1.580000e-001 1.580000e-001
 1 306 608 5.220000e-001 5.220000e-001
 1 306 609 4.160000e-001 4.160000e-001
 1 306 610 2.500000e-002 2.500000e-002
 1 306 624 0.000000e+000 0.000000e+000
 1 306 629 1.540000e-001 1.540000e-001
 1 306 630 2.730000e-001 2.730000e-001
 1 306 631 2.500000e-001 2.500000e-001
 1 306 632 2.540000e-001 2.540000e-001
 1 306 633 2.150000e-001 2.150000e-001
 1 306 634 1.760000e-001 1.760000e-001
 1 306 635 1.200000e-001 1.200000e-001
 1 306 636 0.000000e+000 0.000000e+000
 1 306 637 2.500000e-002 2.500000e-002
 1 306 638 2.500000e-002 2.500000e-002
 1 306 639 0.000000e+000 0.000000e+000
 1 306 640 2.970000e-001 2.970000e-001
 1 306 641 3.790000e-001 3.790000e-001
 1 306 642 2.500000e-002 2.500000e-002
 1 306 643 2.500000e-002 2.500000e-002
 1 306 644 0.000000e+000 0.000000e+000
 1 306 645 2.570000e-001 2.570000e-001
 1 306 646 0.000000e+000 0.000000e+000
 1 307 565 0.000000e+000 0.000000e+000
 1 307 603 2.200000e-002 2.200000e-002
 1 307 604 8.200000e-001 8.200000e-001
 1 307 606 1.720000 1.720000
 1 307 607 2.160000e-001 2.160000e-001
 1 307 608 6.260000e-001 6.260000e-001
 1 307 609 4.360000e-001 4.360000e-001
 1 307 623 0.000000e+000 0.000000e+000
 1 307 624 5.000000e-002 5.000000e-002
 1 307 625 1.720000 1.720000
 1 307 630 0.000000e+000 0.000000e+000
 1 307 631 2.150000e-001 2.150000e-001
 1 307 632 1.890000e-001 1.890000e-001
 1 307 633 1.640000e-001 1.640000e-001
 1 307 634 2.770000e-001 2.770000e-001
 1 307 635 2.120000e-001 2.120000e-001
 1 307 636 1.680000e-001 1.680000e-001
 1 307 637 2.500000e-002 2.500000e-002
 1 307 638 0.000000e+000 0.000000e+000
 1 307 639 2.500000e-002 2.500000e-002
 1 307 640 1.160000e-001 1.160000e-001
 1 307 641 6.720000e-001 6.720000e-001
 1 307 642 0.000000e+000 0.000000e+000
 1 307 643 0.000000e+000 0.000000e+000
 1 307 644 6.900000e-002 6.900000e-002
 1 307 645 3.270000e-001 3.270000e-001
 1 307 646 0.000000e+000 0.000000e+000
 1 307 647 5.000000e-002 5.000000e-002
 1 308 565 0.000000e+000 0.000000e+000
 1 308 599 0.000000e+000 0.000000e+000
 1 308 604 0.000000e+000 0.000000e+000
 1 308 605 0.000000e+000 0.000000e+000
 1 308 606 0.000000e+000 0.000000e+000
 1 308 607 1.950000e-001 1.950000e-001
 1 308 608 6.200000e-001 6.200000e-001
 1 308 609 4.690000e-001 4.690000e-001
 1 308 623 0.000000e+000 0.000000e+000
 1 308 624 2.500000e-002 2.500000e-002
 1 308 633 1.720000 1.720000
 1 308 634 1.660000e-001 1.660000e-001
 1 308 635 2.930000e-001 2.930000e-001
 1 308 636 2.450000e-001 2.450000e-001
 1 308 637 3.600000e-002 3.600000e-002
 1 308 638 2.500000e-002 2.500000e-002
 1 308 639 2.500000e-002 2.500000e-002
 1 308 640 1.400000e-001 1.400000e-001
 1 308 641 6.010000e-001 6.010000e-001
 1 308 642 0.000000e+000 0.000000e+000
 1 308 643 0.000000e+000 0.000000e+000
 1 308 644 1.600000e-001 1.600000e-001
 1 308 645 3.440000e-001 3.440000e-001
 1 308 646 0.000000e+000 0.000000e+000
 1 308 647 5.000000e-002 5.000000e-002
 1 309 565 8.200000e-001 8.200000e-001
 1 309 598 0.000000e+000 0.000000e+000
 1 309 599 0.000000e+000 0.000000e+000
 1 309 603 7.500000e-002 7.500000e-002
 1 309 605 5.000000e-002 5.000000e-002
 1 309 606 0.000000e+000 0.000000e+000
 1 309 607 2.530000e-001 2.530000e-001
 1 309 608 5.860000e-001 5.860000e-001
 1 309 609 3.990000e-001 3.990000e-001
 1 309 623 0.000000e+000 0.000000e+000
 1 309 624 1.720000 1.720000
 1 309 635 2.530000e-001 2.530000e-001
 1 309 636 3.010000e-001 3.010000e-001
 1 309 637 1.850000e-001 1.850000e-001
 1 309 638 0.000000e+000 0.000000e+000
 1 309 639 2.500000e-002 2.500000e-002
 1 309 640 2.800000e-001 2.800000e-001
 1 309 641 5.310000e-001 5.310000e-001
 1 309 642 0.000000e+000 0.000000e+000
 1 309 643 2.500000e-002 2.500000e-002
 1 309 644 1.600000e-001 1.600000e-001
 1 309 645 2.230000e-001 2.230000e-001
 1 309 646 5.900000e-002 5.900000e-002
 1 309 647 0.000000e+000 0.000000e+000
 1 310 565 8.200000e-001 8.200000e-001
 1 310 597 6.230000 6.230000
 1 310 598 0.000000e+000 0.000000e+000
 1 310 601 8.040000 8.040000
 1 310 602 5.330000 5.330000
 1 310 603 8.200000e-001 8.200000e-001
 1 310 604 2.500000e-002 2.500000e-002
 1 310 605 9.000000e-002 9.000000e-002
 1 310 606 2.100000e-002 2.100000e-002
 1 310 607 2.430000e-001 2.430000e-001
 1 310 608 5.410000e-001 5.410000e-001
 1 310 609 4.470000e-001 4.470000e-001
 1 310 610 1.720000 1.720000
 1 310 622 2.500000e-002 2.500000e-002
 1 310 623 8.800000e-002 8.800000e-002
 1 310 625 2.620000 2.620000
 1 310 626 0.000000e+000 0.000000e+000
 1 310 627 0.000000e+000 0.000000e+000
 1 310 635 2.190000e-001 2.190000e-001
 1 310 636 3.630000e-001 3.630000e-001
 1 310 637 3.000000e-001 3.000000e-001
 1 310 638 1.910000e-001 1.910000e-001
 1 310 639 1.280000e-001 1.280000e-001
 1 310 640 1.290000e-001 1.290000e-001
 1 310 641 4.170000e-001 4.170000e-001
 1 310 642 2.920000e-001 2.920000e-001
 1 310 643 2.330000e-001 2.330000e-001
 1 310 644 0.000000e+000 0.000000e+000
 1 310 645 2.840000e-001 2.840000e-001
 1 310 646 3.120000e-001 3.120000e-001
 1 310 647 2.500000e-002 2.500000e-002
 1 311 565 9.850000 9.850000
 1 311 597 5.330000 5.330000
 1 311 598 0.000000e+000 0.000000e+000
 1 311 601 2.620000 2.620000
 1 311 602 0.000000e+000 0.000000e+000
 1 311 603 1.200000e-002 1.200000e-002
 1 311 604 2.500000e-002 2.500000e-002
 1 311 605 0.000000e+000 0.000000e+000
 1 311 606 1.320000e-001 1.320000e-001
 1 311 607 2.080000e-001 2.080000e-001
 1 311 608 6.460000e-001 6.460000e-001
 1 311 609 5.760000e-001 5.760000e-001
 1 311 610 0.000000e+000 0.000000e+000
 1 311 622 0.000000e+000 0.000000e+000
 1 311 623 5.000000e-002 5.000000e-002
 1 311 624 1.000000e-001 1.000000e-001
 1 311 625 2.500000e-002 2.500000e-002
 1 311 626 0.000000e+000 0.000000e+000
 1 311 635 8.700000e-002 8.700000e-002
 1 311 636 2.710000e-001 2.710000e-001
 1 311 637 3.360000e-001 3.360000e-001
 1 311 638 3.530000e-001 3.530000e-001
 1 311 639 4.080000e-001 4.080000e-001
 1 311 640 4.530000e-001 4.530000e-001
 1 311 641 4.930000e-001 4.930000e-001
 1 311 642 6.310000e-001 6.310000e-001
 1 311 643 5.950000e-001 5.950000e-001
 1 311 644 4.410000e-001 4.410000e-001
 1 311 645 1.480000e-001 1.480000e-001
 1 311 646 2.310000e-001 2.310000e-001
 1 311 647 4.490000e-001 4.490000e-001
 1 312 564 0.000000e+000 0.000000e+000
 1 312 565 8.940000 8.940000
 1 312 598 0.000000e+000 0.000000e+000
 1 312 599 7.100000e-002 7.100000e-002
 1 312 600 8.200000e-001 8.200000e-001
 1 312 601 0.000000e+000 0.000000e+000
 1 312 602 3.500000e-002 3.500000e-002
 1 312 603 0.000000e+000 0.000000e+000
 1 312 604 2.500000e-002 2.500000e-002
 1 312 605 2.500000e-002 2.500000e-002
 1 312 606 1.290000e-001 1.290000e-001
 1 312 607 1.920000e-001 1.920000e-001
 1 312 608 6.960000e-001 6.960000e-001
 1 312 609 6.020000e-001 6.020000e-001
 1 312 610 0.000000e+000 0.000000e+000
 1 312 624 3.520000 3.520000
 1 312 625 2.250000e-001 2.250000e-001
 1 312 626 7.500000e-002 7.500000e-002
 1 312 632 5.500000e-002 5.500000e-002
 1 312 633 3.000000e-003 3.000000e-003
 1 312 634 6.300000e-002 6.300000e-002
 1 312 637 2.870000e-001 2.870000e-001
 1 312 638 3.210000e-001 3.210000e-001
 1 312 639 2.560000e-001 2.560000e-001
 1 312 640 2.490000e-001 2.490000e-001
 1 312 641 2.190000e-001 2.190000e-001
 1 312 642 4.230000e-001 4.230000e-001
 1 312 643 7.660000e-001 7.660000e-001
 1 312 644 8.110000e-001 8.110000e-001
 1 312 645 6.490000e-001 6.490000e-001
 1 312 646 4.330000e-001 4.330000e-001
 1 312 647 3.810000e-001 3.810000e-001
 1 312 648 2.500000e-002 2.500000e-002
 1 313 562 0.000000e+000 0.000000e+000
 1 313 563 0.000000e+000 0.000000e+000
 1 313 564 0.000000e+000 0.000000e+000
 1 313 599 0.000000e+000 0.000000e+000
 1 313 600 5.000000e-002 5.000000e-002
 1 313 601 7.500000e-002 7.500000e-002
 1 313 602 1.850000e-001 1.850000e-001
 1 313 603 0.000000e+000 0.000000e+000
 1 313 604 5.000000e-002 5.000000e-002
 1 313 605 0.000000e+000 0.000000e+000
 1 313 606 1.130000e-001 1.130000e-001
 1 313 607 1.600000e-001 1.600000e-001
 1 313 608 6.780000e-001 6.780000e-001
 1 313 609 5.540000e-001 5.540000e-001
 1 313 610 0.000000e+000 0.000000e+000
 1 313 625 1.940000e-001 1.940000e-001
 1 313 638 2.620000 2.620000
 1 313 639 0.000000e+000 0.000000e+000
 1 313 640 1.250000e-001 1.250000e-001
 1 313 641 1.250000e-001 1.250000e-001
 1 313 642 2.500000e-002 2.500000e-002
 1 313 643 0.000000e+000 0.000000e+000
 1 313 644 1.230000e-001 1.230000e-001
 1 313 645 5.520000e-001 5.520000e-001
 1 313 646 6.830000e-001 6.830000e-001
 1 313 647 7.880000e-001 7.880000e-001
 1 313 648 0.000000e+000 0.000000e+000
 1 314 560 0.000000e+000 0.000000e+000
 1 314 561 0.000000e+000 0.000000e+000
 1 314 562 0.000000e+000 0.000000e+000
 1 314 600 8.040000 8.040000
 1 314 601 5.330000 5.330000
 1 314 602 2.260000e-001 2.260000e-001
 1 314 603 0.000000e+000 0.000000e+000
 1 314 604 2.500000e-002 2.500000e-002
 1 314 605 1.200000e-001 1.200000e-001
 1 314 606 1.690000e-001 1.690000e-001
 1 314 607 4.370000e-001 4.370000e-001
 1 314 608 6.540000e-001 6.540000e-001
 1 314 609 6.320000e-001 6.320000e-001
 1 314 610 0.000000e+000 0.000000e+000
 1 314 620 0.000000e+000 0.000000e+000
 1 314 621 11.650000 11.650000
 1 314 622 11.650000 11.650000
 1 314 625 2.180000e-001 2.180000e-001
 1 314 626 8.200000e-001 8.200000e-001
 1 314 632 8.200000e-001 8.200000e-001
 1 314 633 8.200000e-001 8.200000e-001
 1 314 634 8.200000e-001 8.200000e-001
 1 314 635 0.000000e+000 0.000000e+000
 1 314 636 0.000000e+000 0.000000e+000
 1 314 639 0.000000e+000 0.000000e+000
 1 314 640 9.200000e-002 9.200000e-002
 1 314 641 1.750000e-001 1.750000e-001
 1 314 642 1.250000e-001 1.250000e-001
 1 314 643 2.500000e-002 2.500000e-002
 1 314 644 0.000000e+000 0.000000e+000
 1 314 645 1.750000e-001 1.750000e-001
 1 314 646 5.060000e-001 5.060000e-001
 1 314 647 1.015000 1.015000
 1 314 648 6.100000e-001 6.100000e-001
 1 315 559 0.000000e+000 0.000000e+000
 1 315 560 0.000000e+000 0.000000e+000
 1 315 600 2.500000e-002 2.500000e-002
 1 315 601 2.620000 2.620000
 1 315 602 1.340000e-001 1.340000e-001
 1 315 603 0.000000e+000 0.000000e+000
 1 315 604 0.000000e+000 0.000000e+000
 1 315 605 0.000000e+000 0.000000e+000
 1 315 606 0.000000e+000 0.000000e+000
 1 315 607 4.120000e-001 4.120000e-001
 1 315 608 5.440000e-001 5.440000e-001
 1 315 609 8.450000e-001 8.450000e-001
 1 315 610 0.000000e+000 0.000000e+000
 1 315 619 2.500000e-002 2.500000e-002
 1 315 620 2.620000 2.620000
 1 315 621 15.260000 15.260000
 1 315 622 3.360000e-001 3.360000e-001
 1 315 623 2.750000e-001 2.750000e-001
 1 315 624 2.730000e-001 2.730000e-001
 1 315 625 2.310000e-001 2.310000e-001
 1 315 626 3.000000e-002 3.000000e-002
 1 315 632 1.000000e-001 1.000000e-001
 1 315 633 0.000000e+000 0.000000e+000
 1 315 634 0.000000e+000 0.000000e+000
 1 315 635 0.000000e+000 0.000000e+000
 1 315 636 8.200000e-001 8.200000e-001
 1 315 639 0.000000e+000 0.000000e+000
 1 315 640 8.000000e-002 8.000000e-002
 1 315 641 5.000000e-002 5.000000e-002
 1 315 642 0.000000e+000 0.000000e+000
 1 315 643 0.000000e+000 0.000000e+000
 1 315 644 0.000000e+000 0.000000e+000
 1 315 645 1.270000e-001 1.270000e-001